omf/static/testFiles/resilientCommunity/iowa240_in_Florida_copy2.dss
clear
new object=circuit.iowa240_node_test_system_man2_clean
edit object=vsource.source bus1=eq_source_bus.1.2.3 phases=3 angle=0.00000 pu=1.00000 basekv=69.00000 r1=4.54263687 x1=10.52743053 r0=7.36552668 x0=24.50463867
new object=transformer.sub_xfmr windings=2 buses=[eq_source_bus.1.2.3,bus_xfmr.1.2.3.0] phases=3 xhl=6.265911 conns=[delta,wye] kvs=[69,13.8] kvas=[10000,10000] taps=[1,1] %rs=[0.6265909,0.6265909]
new object=transformer.sub_regulator_a windings=2 buses=[bus_xfmr.1,bus1.1] phases=1 bank=reg1 xhl=0.01 conns=[wye,wye] kvs=[7.9677,7.9677] kvas=[3500,3500] taps=[1,1.025] %rs=[0.001,0.001] numtaps=32 maxtap=1.1 mintap=0.9
new object=transformer.sub_regulator_b windings=2 buses=[bus_xfmr.2,bus1.2] phases=1 bank=reg1 xhl=0.01 conns=[wye,wye] kvs=[7.9677,7.9677] kvas=[3500,3500] taps=[1,1.025] %rs=[0.001,0.001] numtaps=32 maxtap=1.1 mintap=0.9
new object=transformer.sub_regulator_c windings=2 buses=[bus_xfmr.3,bus1.3] phases=1 bank=reg1 xhl=0.01 conns=[wye,wye] kvs=[7.9677,7.9677] kvas=[3500,3500] taps=[1,1.025] %rs=[0.001,0.001] numtaps=32 maxtap=1.1 mintap=0.9
new object=transformer.t_3082 windings=2 buses=[bus3082.1.2.3.0,t_bus3082_l.1.2.3] phases=3 xhl=4.98 conns=[wye,delta] kvs=[13.8,0.48] kvas=[750,750] %rs=[0.55,0.55]
new object=linecode.oh_3p_type1 nphases=3 units=mi rmatrix=(0.615927|0.170927,0.615927|0.170927,0.170927,0.615927) xmatrix=(1.209389|0.433188,1.209389|0.433188,0.433188,1.209389)
new object=linecode.oh_2p_type2 nphases=2 units=mi rmatrix=(0.589255|0.169495,0.589255) xmatrix=(1.074856|0.387876,1.074856)
new object=linecode.oh_1p_type2 nphases=1 units=mi rmatrix=(0.592473) xmatrix=(1.065821)
new object=linecode.oh_3p_type5 nphases=3 units=mi rmatrix=(1.191602|0.234849,1.191602|0.234849,0.234849,1.191602) xmatrix=(1.209452|0.489263,1.209452|0.489263,0.489263,1.209452)
new object=linecode.oh_1p_type5 nphases=1 units=mi rmatrix=(1.194260) xmatrix=(1.205420)
new object=linecode.ug_3p_type1 nphases=3 units=mi rmatrix=(1.009423|0.409732,1.009423|0.409732,0.409732,1.009423) xmatrix=(0.493164|0.100849,0.493164|0.100849,0.100849,0.493164) cmatrix=(286.101593|0.000000,286.101593|0.000000,0.000000,286.101593)
new object=linecode.ug_3p_type2 nphases=3 units=mi rmatrix=(1.692577|0.550087,1.692577|0.550087,0.550087,1.692577) xmatrix=(0.791756|0.344931,0.791756|0.344931,0.344931,0.791756) cmatrix=(207.880539|0.000000,207.880539|0.000000,0.000000,207.880539)
new object=linecode.ug_1p_type2 nphases=1 units=mi rmatrix=(1.675338) xmatrix=(1.210007) cmatrix=(207.880539)
new object=linecode.t_type1 nphases=3 units=ft rmatrix=(41.13504|0,41.13504|0,0,41.13504) xmatrix=(65.51136|0,65.51136|0,0,65.51136)
new object=linecode.t_type2 nphases=3 units=ft rmatrix=(57.63984|0,57.63984|0,0,57.63984) xmatrix=(48.49872|0,48.49872|0,0,48.49872)
new object=linecode.t_type3 nphases=1 units=ft rmatrix=(25.392) xmatrix=(53.3232)
new object=linecode.t_type4 nphases=1 units=ft rmatrix=(101.31408) xmatrix=(143.21088)
new object=linecode.t_type5 nphases=3 units=ft rmatrix=(106.6464|0,106.6464|0,0,106.6464) xmatrix=(73.2136|0,73.2136|0,0,73.2136)
new object=linecode.t_type6 nphases=1 units=ft rmatrix=(33.773617) xmatrix=(35.805113)
new object=linecode.t_type7 nphases=1 units=ft rmatrix=(20.145667) xmatrix=(21.965548)
new object=linecode.t_type8 nphases=1 units=ft rmatrix=(13.966534) xmatrix=(17.140746)
new object=linecode.t_type9 nphases=3 units=ft rmatrix=(11.4264|0,11.4264|0,0,11.4264) xmatrix=(28.566|0,28.566|0,0,28.566)
new object=linecode.t_type10 nphases=1 units=ft rmatrix=(70.255896) xmatrix=(40.629916)
new object=linecode.t_type11 nphases=3 units=ft rmatrix=(18.6208|0,18.6208|0,0,18.6208) xmatrix=(39.3576|0,39.3576|0,0,39.3576)
new object=linecode.t_type12 nphases=1 units=ft rmatrix=(7.110235) xmatrix=(10.665353)
new object=linecode.t_type13 nphases=3 units=ft rmatrix=(6.09408|0,6.09408|0,0,6.09408) xmatrix=(22.47192|0,22.47192|0,0,22.47192)
new object=line.l_1001_1002 bus1=bus1001.1.2.3 bus2=bus1002.1.2.3 phases=3 length=2967 units=ft linecode=ug_3p_type1
new object=line.l_1002_1003 bus1=bus1002.1.2.3 bus2=bus1003.1.2.3 phases=3 length=372 units=ft linecode=ug_3p_type2
new object=line.l_1002_1004 bus1=bus1002.1.2.3 bus2=bus1004.1.2.3 phases=3 length=638 units=ft linecode=oh_3p_type1
new object=line.l_1004_1005 bus1=bus1004.1.2.3 bus2=bus1005.1.2.3 phases=3 length=394 units=ft linecode=oh_3p_type1
new object=line.l_1005_1006 bus1=bus1005.1.2.3 bus2=bus1006.1.2.3 phases=3 length=1049 units=ft linecode=oh_3p_type1
new object=line.l_1006_1007 bus1=bus1006.1.2 bus2=bus1007.1.2 phases=2 length=2000 units=ft linecode=oh_2p_type2
new object=line.l_1006_1008 bus1=bus1006.1.2.3 bus2=bus1008.1.2.3 phases=3 length=454 units=ft linecode=oh_3p_type1
new object=line.l_1008_1009 bus1=bus1008.1.2.3 bus2=bus1009.1.2.3 phases=3 length=1082 units=ft linecode=oh_3p_type1
new object=line.l_1009_1010 bus1=bus1009.1.2.3 bus2=bus1010.1.2.3 phases=3 length=169 units=ft linecode=oh_3p_type1
new object=line.l_1009_1011 bus1=bus1009.1.2.3 bus2=bus1011.1.2.3 phases=3 length=60 units=ft linecode=ug_3p_type2
new object=line.l_1011_1012 bus1=bus1011.1.2.3 bus2=bus1012.1.2.3 phases=3 length=60 units=ft linecode=ug_3p_type2
new object=line.l_1012_1013 bus1=bus1012.1.2.3 bus2=bus1013.1.2.3 phases=3 length=306 units=ft linecode=ug_3p_type2
new object=line.l_1013_1014 bus1=bus1013.2.0 bus2=bus1014.2.0 phases=1 length=208 units=ft linecode=ug_1p_type2
new object=line.l_1014_1015 bus1=bus1014.2.0 bus2=bus1015.2.0 phases=1 length=126 units=ft linecode=ug_1p_type2
new object=line.l_1013_1016 bus1=bus1013.3.0 bus2=bus1016.3.0 phases=1 length=468 units=ft linecode=ug_1p_type2
new object=line.l_1016_1017 bus1=bus1016.3.0 bus2=bus1017.3.0 phases=1 length=71 units=ft linecode=ug_1p_type2
new object=line.l_1003_1003_l bus1=bus1003.1.2.3.0 bus2=t_bus1003_l.1.2.3.0 phases=3 length=1 units=ft linecode=t_type1
new object=line.l_1004_1004_l bus1=bus1004.1.2.3.0 bus2=t_bus1004_l.1.2.3.0 phases=3 length=1 units=ft linecode=t_type2
new object=line.l_1005_1005_l bus1=bus1005.1.2.3.0 bus2=t_bus1005_l.1.2.3.0 phases=3 length=1 units=ft linecode=t_type2
new object=line.l_1006_1006_l_1 bus1=bus1006.1.0 bus2=t_bus1006_l.1.0 phases=1 length=1 units=ft linecode=t_type3
new object=line.l_1006_1006_l_2 bus1=bus1006.2.0 bus2=t_bus1006_l.2.0 phases=1 length=1 units=ft linecode=t_type3
new object=line.l_1007_1007_l_1 bus1=bus1007.1.0 bus2=t_bus1007_l.1.0 phases=1 length=1 units=ft linecode=t_type4
new object=line.l_1007_1007_l_2 bus1=bus1007.2.0 bus2=t_bus1007_l.2.0 phases=1 length=1 units=ft linecode=t_type4
new object=line.l_1008_1008_l bus1=bus1008.1.2.3.0 bus2=t_bus1008_l.1.2.3.0 phases=3 length=1 units=ft linecode=t_type5
new object=line.l_1009_1009_l bus1=bus1009.1.2.3.0 bus2=t_bus1009_l.1.2.3.0 phases=3 length=1 units=ft linecode=t_type2
new object=line.l_1010_1010_l bus1=bus1010.1.2.3.0 bus2=t_bus1010_l.1.2.3.0 phases=3 length=1 units=ft linecode=t_type5
new object=line.l_1011_1011_l bus1=bus1011.1.0 bus2=t_bus1011_l.1.0 phases=1 length=1 units=ft linecode=t_type6
new object=line.l_1012_1012_l bus1=bus1012.2.0 bus2=t_bus1012_l.2.0 phases=1 length=1 units=ft linecode=t_type7
new object=line.l_1013_1013_l bus1=bus1013.1.2.3.0 bus2=t_bus1013_l.1.2.3.0 phases=3 length=1 units=ft linecode=t_type5
new object=line.l_1014_1014_l bus1=bus1014.2.0 bus2=t_bus1014_l.2.0 phases=1 length=1 units=ft linecode=t_type6
new object=line.l_1015_1015_l bus1=bus1015.2.0 bus2=t_bus1015_l.2.0 phases=1 length=1 units=ft linecode=t_type6
new object=line.l_1016_1016_l bus1=bus1016.3.0 bus2=t_bus1016_l.3.0 phases=1 length=1 units=ft linecode=t_type8
new object=line.l_1017_1017_l bus1=bus1017.3.0 bus2=t_bus1017_l.3.0 phases=1 length=1 units=ft linecode=t_type7
new object=line.l_2001_2002 bus1=bus2001.1.2.3 bus2=bus2002.1.2.3 phases=3 length=1388 units=ft linecode=ug_3p_type1
new object=line.l_2002_2003 bus1=bus2002.1.2.3 bus2=bus2003.1.2.3 phases=3 length=1281 units=ft linecode=oh_3p_type1
new object=line.l_2003_2004 bus1=bus2003.1.2.3 bus2=bus2004.1.2.3 phases=3 length=798 units=ft linecode=oh_3p_type1
new object=line.l_2004_2005 bus1=bus2004.1.2.3 bus2=bus2005.1.2.3 phases=3 length=317 units=ft linecode=oh_3p_type1
new object=line.l_2005_2006 bus1=bus2005.1.2.3 bus2=bus2006.1.2.3 phases=3 length=145 units=ft linecode=oh_3p_type1
new object=line.l_2006_2007 bus1=bus2006.1 bus2=bus2007.1 phases=1 length=245 units=ft linecode=oh_1p_type5
new object=line.l_2007_2008 bus1=bus2007.1 bus2=bus2008.1 phases=1 length=125 units=ft linecode=ug_1p_type2
new object=line.l_2007_2009 bus1=bus2007.1 bus2=bus2009.1 phases=1 length=161 units=ft linecode=oh_1p_type2
new object=line.l_2006_2010 bus1=bus2006.1.2.3 bus2=bus2010.1.2.3 phases=3 length=170 units=ft linecode=oh_3p_type1
new object=line.l_2010_2011 bus1=bus2010.1.2.3 bus2=bus2011.1.2.3 phases=3 length=275 units=ft linecode=oh_3p_type1
new object=line.l_2011_2012 bus1=bus2011.1.2.3 bus2=bus2012.1.2.3 phases=3 length=503 units=ft linecode=oh_3p_type1
new object=line.l_2013_2014 bus1=bus2013.1.2.3 bus2=bus2014.1.2.3 phases=3 length=268 units=ft linecode=oh_3p_type1
new object=line.l_2014_2015 bus1=bus2014.2 bus2=bus2015.2 phases=1 length=120 units=ft linecode=ug_1p_type2
new object=line.l_2014_2016 bus1=bus2014.1.2.3 bus2=bus2016.1.2.3 phases=3 length=257 units=ft linecode=oh_3p_type1
new object=line.l_2016_2017 bus1=bus2016.1.2.3 bus2=bus2017.1.2.3 phases=3 length=174 units=ft linecode=ug_3p_type2
new object=line.l_2017_2018 bus1=bus2017.1.2.3 bus2=bus2018.1.2.3 phases=3 length=447 units=ft linecode=ug_3p_type2
new object=line.l_2013_2019 bus1=bus2013.1.2.3 bus2=bus2019.1.2.3 phases=3 length=45 units=ft linecode=oh_3p_type1
new object=line.l_2019_2020 bus1=bus2019.2 bus2=bus2020.2 phases=1 length=642 units=ft linecode=ug_1p_type2
new object=line.l_2019_2021 bus1=bus2019.1.2.3 bus2=bus2021.1.2.3 phases=3 length=43 units=ft linecode=oh_3p_type1
new object=line.l_2021_2022 bus1=bus2021.3 bus2=bus2022.3 phases=1 length=205 units=ft linecode=ug_1p_type2
new object=line.l_2022_2023 bus1=bus2022.3 bus2=bus2023.3 phases=1 length=150 units=ft linecode=ug_1p_type2
new object=line.l_2023_2024 bus1=bus2023.3 bus2=bus2024.3 phases=1 length=408 units=ft linecode=ug_1p_type2
new object=line.l_2024_2025 bus1=bus2024.3 bus2=bus2025.3 phases=1 length=331 units=ft linecode=ug_1p_type2
new object=line.l_2026_2027 bus1=bus2026.1.2.3 bus2=bus2027.1.2.3 phases=3 length=369 units=ft linecode=oh_3p_type1
new object=line.l_2027_2028 bus1=bus2027.1.2.3 bus2=bus2028.1.2.3 phases=3 length=285 units=ft linecode=ug_3p_type2
new object=line.l_2028_2029 bus1=bus2028.1.2.3 bus2=bus2029.1.2.3 phases=3 length=131 units=ft linecode=ug_3p_type2
new object=line.l_2029_2030 bus1=bus2029.1.2.3 bus2=bus2030.1.2.3 phases=3 length=165 units=ft linecode=ug_3p_type2
new object=line.l_2030_2031 bus1=bus2030.1.2.3 bus2=bus2031.1.2.3 phases=3 length=245 units=ft linecode=ug_3p_type2
new object=line.l_2027_2032 bus1=bus2027.1.2.3 bus2=bus2032.1.2.3 phases=3 length=149 units=ft linecode=oh_3p_type1
new object=line.l_2032_2033 bus1=bus2032.1.2.3 bus2=bus2033.1.2.3 phases=3 length=289 units=ft linecode=oh_3p_type1
new object=line.l_2033_2034 bus1=bus2033.1.2.3 bus2=bus2034.1.2.3 phases=3 length=185 units=ft linecode=oh_3p_type5
new object=line.l_2033_2035 bus1=bus2033.1.2.3 bus2=bus2035.1.2.3 phases=3 length=160 units=ft linecode=oh_3p_type1
new object=line.l_2035_2036 bus1=bus2035.1.2.3 bus2=bus2036.1.2.3 phases=3 length=160 units=ft linecode=oh_3p_type1
new object=line.l_2036_2037 bus1=bus2036.1.2.3 bus2=bus2037.1.2.3 phases=3 length=80 units=ft linecode=oh_3p_type1
new object=line.l_2037_2038 bus1=bus2037.1.2.3 bus2=bus2038.1.2.3 phases=3 length=192 units=ft linecode=oh_3p_type1
new object=line.l_2038_2039 bus1=bus2038.1.2.3 bus2=bus2039.1.2.3 phases=3 length=800 units=ft linecode=oh_3p_type1
new object=line.l_2039_2040 bus1=bus2039.1.2.3 bus2=bus2040.1.2.3 phases=3 length=309 units=ft linecode=oh_3p_type1
new object=line.l_2040_2041 bus1=bus2040.1.2.3 bus2=bus2041.1.2.3 phases=3 length=383 units=ft linecode=oh_3p_type1
new object=line.l_2039_2042 bus1=bus2039.1.2.3 bus2=bus2042.1.2.3 phases=3 length=35 units=ft linecode=ug_3p_type2
new object=line.l_2042_2043 bus1=bus2042.1.2.3 bus2=bus2043.1.2.3 phases=3 length=158 units=ft linecode=ug_3p_type2
new object=line.l_2043_2044 bus1=bus2043.1.2.3 bus2=bus2044.1.2.3 phases=3 length=342 units=ft linecode=ug_3p_type2
new object=line.l_2044_2045 bus1=bus2044.2 bus2=bus2045.2 phases=1 length=323 units=ft linecode=ug_1p_type2
new object=line.l_2045_2046 bus1=bus2045.2 bus2=bus2046.2 phases=1 length=330 units=ft linecode=ug_1p_type2
new object=line.l_2045_2047 bus1=bus2045.2 bus2=bus2047.2 phases=1 length=189 units=ft linecode=ug_1p_type2
new object=line.l_2047_2048 bus1=bus2047.2 bus2=bus2048.2 phases=1 length=259 units=ft linecode=ug_1p_type2
new object=line.l_2044_2049 bus1=bus2044.1.2.3 bus2=bus2049.1.2.3 phases=3 length=130 units=ft linecode=ug_3p_type2
new object=line.l_2049_2050 bus1=bus2049.1.2.3 bus2=bus2050.1.2.3 phases=3 length=124 units=ft linecode=ug_3p_type2
new object=line.l_2050_2051 bus1=bus2050.1.2.3 bus2=bus2051.1.2.3 phases=3 length=139 units=ft linecode=ug_3p_type2
new object=line.l_2051_2052 bus1=bus2051.1.2.3 bus2=bus2052.1.2.3 phases=3 length=134 units=ft linecode=ug_3p_type2
new object=line.l_2044_2053 bus1=bus2044.1.2.3 bus2=bus2053.1.2.3 phases=3 length=464 units=ft linecode=ug_3p_type2
new object=line.l_2053_2054 bus1=bus2053.1.2.3 bus2=bus2054.1.2.3 phases=3 length=139 units=ft linecode=ug_3p_type2
new object=line.l_2054_2055 bus1=bus2054.1.2.3 bus2=bus2055.1.2.3 phases=1 length=156 units=ft linecode=ug_3p_type2
new object=line.l_2055_2056 bus1=bus2055.1.2.3 bus2=bus2056.1.2.3 phases=1 length=204 units=ft linecode=ug_3p_type2
new object=line.l_2053_2057 bus1=bus2053.1.2.3 bus2=bus2057.1.2.3 phases=3 length=761 units=ft linecode=ug_3p_type2
new object=line.l_2057_2058 bus1=bus2057.1.2.3 bus2=bus2058.1.2.3 phases=3 length=407 units=ft linecode=ug_3p_type2
new object=line.l_2057_2059 bus1=bus2057.1.2.3 bus2=bus2059.1.2.3 phases=3 length=685 units=ft linecode=ug_3p_type2
new object=line.l_2059_2060 bus1=bus2059.1.2.3 bus2=bus2060.1.2.3 phases=3 length=304 units=ft linecode=ug_3p_type2
new object=line.l_2002_2002_l bus1=bus2002.1.2.3 bus2=t_bus2002_l.1.2.3 phases=3 length=1 units=ft linecode=t_type9
new object=line.l_2003_2003_l bus1=bus2003.1.2.3.0 bus2=t_bus2003_l.1.2.3.0 phases=3 length=1 units=ft linecode=t_type2
new object=line.l_2005_2005_l bus1=bus2005.1.2.3.0 bus2=t_bus2005_l.1.2.3.0 phases=3 length=1 units=ft linecode=t_type5
new object=line.l_2008_2008_l bus1=bus2008.1.0 bus2=t_bus2008_l.1.0 phases=1 length=1 units=ft linecode=t_type6
new object=line.l_2009_2009_l bus1=bus2009.1.0 bus2=t_bus2009_l.1.0 phases=1 length=1 units=ft linecode=t_type6
new object=line.l_2010_2010_l bus1=bus2010.1.2.3.0 bus2=t_bus2010_l.1.2.3.0 phases=3 length=1 units=ft linecode=t_type5
new object=line.l_2011_2011_l bus1=bus2011.1.2.3.0 bus2=t_bus2011_l.1.2.3.0 phases=3 length=1 units=ft linecode=t_type5
new object=line.l_2014_2014_l bus1=bus2014.2.0 bus2=t_bus2014_l.2.0 phases=1 length=1 units=ft linecode=t_type7
new object=line.l_2015_2015_l bus1=bus2015.2.0 bus2=t_bus2015_l.2.0 phases=1 length=1 units=ft linecode=t_type6
new object=line.l_2016_2016_l bus1=bus2016.2.0 bus2=t_bus2016_l.2.0 phases=1 length=1 units=ft linecode=t_type6
new object=line.l_2017_2017_l bus1=bus2017.2.0 bus2=t_bus2017_l.2.0 phases=1 length=1 units=ft linecode=t_type6
new object=line.l_2018_2018_l bus1=bus2018.2.0 bus2=t_bus2018_l.2.0 phases=1 length=1 units=ft linecode=t_type6
new object=line.l_2020_2020_l bus1=bus2020.2.0 bus2=t_bus2020_l.2.0 phases=1 length=1 units=ft linecode=t_type6
new object=line.l_2022_2022_l bus1=bus2022.3.0 bus2=t_bus2022_l.3.0 phases=1 length=1 units=ft linecode=t_type6
new object=line.l_2023_2023_l bus1=bus2023.3.0 bus2=t_bus2023_l.3.0 phases=1 length=1 units=ft linecode=t_type10
new object=line.l_2024_2024_l bus1=bus2024.3.0 bus2=t_bus2024_l.3.0 phases=1 length=1 units=ft linecode=t_type6
new object=line.l_2025_2025_l bus1=bus2025.3.0 bus2=t_bus2025_l.3.0 phases=1 length=1 units=ft linecode=t_type6
new object=line.l_2028_2028_l bus1=bus2028.1.0 bus2=t_bus2028_l.1.0 phases=1 length=1 units=ft linecode=t_type6
new object=line.l_2029_2029_l bus1=bus2029.1.2.3.0 bus2=t_bus2029_l.1.2.3.0 phases=3 length=1 units=ft linecode=t_type2
new object=line.l_2030_2030_l bus1=bus2030.1.2.3.0 bus2=t_bus2030_l.1.2.3.0 phases=3 length=1 units=ft linecode=t_type2
new object=line.l_2031_2031_l bus1=bus2031.1.0 bus2=t_bus2031_l.1.0 phases=1 length=1 units=ft linecode=t_type6
new object=line.l_2032_2032_l bus1=bus2032.1.2.3.0 bus2=t_bus2032_l.1.2.3.0 phases=3 length=1 units=ft linecode=t_type5
new object=line.l_2034_2034_l bus1=bus2034.1.2.3.0 bus2=t_bus2034_l.1.2.3.0 phases=3 length=1 units=ft linecode=t_type5
new object=line.l_2035_2035_l bus1=bus2035.1.2.3.0 bus2=t_bus2035_l.1.2.3.0 phases=3 length=1 units=ft linecode=t_type2
new object=line.l_2037_2037_l bus1=bus2037.1.2.3.0 bus2=t_bus2037_l.1.2.3.0 phases=3 length=1 units=ft linecode=t_type5
new object=line.l_2040_2040_l bus1=bus2040.1.2.3.0 bus2=t_bus2040_l.1.2.3.0 phases=3 length=1 units=ft linecode=t_type9
new object=line.l_2041_2041_l bus1=bus2041.1.2.3.0 bus2=t_bus2041_l.1.2.3.0 phases=3 length=1 units=ft linecode=t_type5
new object=line.l_2042_2042_l bus1=bus2042.1.2.3.0 bus2=t_bus2042_l.1.2.3.0 phases=3 length=1 units=ft linecode=t_type2
new object=line.l_2043_2043_l bus1=bus2043.1.2.3.0 bus2=t_bus2043_l.1.2.3.0 phases=3 length=1 units=ft linecode=t_type2
new object=line.l_2045_2045_l bus1=bus2045.2.0 bus2=t_bus2045_l.2.0 phases=1 length=1 units=ft linecode=t_type10
new object=line.l_2046_2046_l bus1=bus2046.2.0 bus2=t_bus2046_l.2.0 phases=1 length=1 units=ft linecode=t_type8
new object=line.l_2047_2047_l bus1=bus2047.2.0 bus2=t_bus2047_l.2.0 phases=1 length=1 units=ft linecode=t_type8
new object=line.l_2048_2048_l bus1=bus2048.2.0 bus2=t_bus2048_l.2.0 phases=1 length=1 units=ft linecode=t_type8
new object=line.l_2049_2049_l bus1=bus2049.3.0 bus2=t_bus2049_l.3.0 phases=1 length=1 units=ft linecode=t_type7
new object=line.l_2050_2050_l bus1=bus2050.3.0 bus2=t_bus2050_l.3.0 phases=1 length=1 units=ft linecode=t_type7
new object=line.l_2051_2051_l bus1=bus2051.3.0 bus2=t_bus2051_l.3.0 phases=1 length=1 units=ft linecode=t_type7
new object=line.l_2052_2052_l bus1=bus2052.1.2.3.0 bus2=t_bus2052_l.1.2.3.0 phases=3 length=1 units=ft linecode=t_type11
new object=line.l_2053_2053_l bus1=bus2053.1.2.3.0 bus2=t_bus2053_l.1.2.3.0 phases=3 length=1 units=ft linecode=t_type11
new object=line.l_2054_2054_l bus1=bus2054.1.0 bus2=t_bus2054_l.1.0 phases=1 length=1 units=ft linecode=t_type7
new object=line.l_2055_2055_l bus1=bus2055.1.0 bus2=t_bus2055_l.1.0 phases=1 length=1 units=ft linecode=t_type8
new object=line.l_2056_2056_l bus1=bus2056.1.0 bus2=t_bus2056_l.1.0 phases=1 length=1 units=ft linecode=t_type6
new object=line.l_2058_2058_l bus1=bus2058.1.2.3.0 bus2=t_bus2058_l.1.2.3.0 phases=3 length=1 units=ft linecode=t_type9
new object=line.l_2059_2059_l bus1=bus2059.2.0 bus2=t_bus2059_l.2.0 phases=1 length=1 units=ft linecode=t_type6
new object=line.l_2060_2060_l bus1=bus2060.2.0 bus2=t_bus2060_l.2.0 phases=1 length=1 units=ft linecode=t_type6
new object=line.l_3001_3003 bus1=bus3001.1.2.3 bus2=bus3003.1.2.3 phases=3 length=2307 units=ft linecode=ug_3p_type1
new object=line.l_3003_3002 bus1=bus3003.1.2.3 bus2=bus3002.1.2.3 phases=3 length=85 units=ft linecode=ug_3p_type2
new object=line.l_3003_3004 bus1=bus3003.1.2.3 bus2=bus3004.1.2.3 phases=3 length=81 units=ft linecode=ug_3p_type2
new object=line.l_3003_3005 bus1=bus3003.1.2.3 bus2=bus3005.1.2.3 phases=3 length=1997 units=ft linecode=ug_3p_type1
new object=line.l_3005_3006 bus1=bus3005.1.2.3 bus2=bus3006.1.2.3 phases=3 length=311 units=ft linecode=oh_3p_type1
new object=line.l_3006_3007 bus1=bus3006.1.2.3 bus2=bus3007.1.2.3 phases=3 length=370 units=ft linecode=oh_3p_type1
new object=line.l_3005_3008 bus1=bus3005.1.2.3 bus2=bus3008.1.2.3 phases=3 length=136 units=ft linecode=oh_3p_type1
new object=line.l_3008_3009 bus1=bus3008.1 bus2=bus3009.1 phases=1 length=161 units=ft linecode=oh_1p_type5
new object=line.l_3009_3010 bus1=bus3009.1 bus2=bus3010.1 phases=1 length=347 units=ft linecode=oh_1p_type5
new object=line.l_3010_3011 bus1=bus3010.1 bus2=bus3011.1 phases=1 length=265 units=ft linecode=oh_1p_type5
new object=line.l_3011_3012 bus1=bus3011.1 bus2=bus3012.1 phases=1 length=312 units=ft linecode=oh_1p_type5
new object=line.l_3008_3013 bus1=bus3008.2 bus2=bus3013.2 phases=1 length=170 units=ft linecode=oh_1p_type5
new object=line.l_3013_3014 bus1=bus3013.2 bus2=bus3014.2 phases=1 length=295 units=ft linecode=oh_1p_type5
new object=line.l_3008_3015 bus1=bus3008.1.2.3 bus2=bus3015.1.2.3 phases=3 length=322 units=ft linecode=oh_3p_type1
new object=line.l_3015_3016 bus1=bus3015.2 bus2=bus3016.2 phases=1 length=210 units=ft linecode=oh_1p_type5
new object=line.l_3016_3017 bus1=bus3016.2 bus2=bus3017.2 phases=1 length=259 units=ft linecode=oh_1p_type5
new object=line.l_3015_3018 bus1=bus3015.3 bus2=bus3018.3 phases=1 length=181 units=ft linecode=oh_1p_type5
new object=line.l_3018_3019 bus1=bus3018.3 bus2=bus3019.3 phases=1 length=281 units=ft linecode=oh_1p_type5
new object=line.l_3019_3020 bus1=bus3019.3 bus2=bus3020.3 phases=1 length=307 units=ft linecode=oh_1p_type5
new object=line.l_3020_3021 bus1=bus3020.3 bus2=bus3021.3 phases=1 length=303 units=ft linecode=oh_1p_type5
new object=line.l_3015_3022 bus1=bus3015.1.2.3 bus2=bus3022.1.2.3 phases=3 length=289 units=ft linecode=oh_3p_type1
new object=line.l_3022_3023 bus1=bus3022.1 bus2=bus3023.1 phases=1 length=181 units=ft linecode=oh_1p_type5
new object=line.l_3023_3024 bus1=bus3023.1 bus2=bus3024.1 phases=1 length=320 units=ft linecode=oh_1p_type5
new object=line.l_3024_3025 bus1=bus3024.1 bus2=bus3025.1 phases=1 length=331 units=ft linecode=oh_1p_type5
new object=line.l_3022_3026 bus1=bus3022.1 bus2=bus3026.1 phases=1 length=164 units=ft linecode=oh_1p_type5
new object=line.l_3026_3027 bus1=bus3026.1 bus2=bus3027.1 phases=1 length=368 units=ft linecode=oh_1p_type5
new object=line.l_3027_3028 bus1=bus3027.1 bus2=bus3028.1 phases=1 length=241 units=ft linecode=oh_1p_type5
new object=line.l_3028_3029 bus1=bus3028.1 bus2=bus3029.1 phases=1 length=317 units=ft linecode=oh_1p_type5
new object=line.l_3022_3030 bus1=bus3022.1.2.3 bus2=bus3030.1.2.3 phases=3 length=304 units=ft linecode=oh_3p_type1
new object=line.l_3030_3035 bus1=bus3030.1.2.3 bus2=bus3035.1.2.3 phases=3 length=103 units=ft linecode=oh_3p_type1
new object=line.l_3035_3036 bus1=bus3035.1.2.3 bus2=bus3036.1.2.3 phases=3 length=271 units=ft linecode=oh_3p_type1
new object=line.l_3036_3037 bus1=bus3036.1.2.3 bus2=bus3037.1.2.3 phases=3 length=136 units=ft linecode=oh_3p_type1
new object=line.l_3037_3038 bus1=bus3037.1.2.3 bus2=bus3038.1.2.3 phases=3 length=252 units=ft linecode=oh_3p_type1
new object=line.l_3038_3039 bus1=bus3038.1.2.3 bus2=bus3039.1.2.3 phases=3 length=235 units=ft linecode=oh_3p_type1
new object=line.l_3039_3053 bus1=bus3039.1.2.3 bus2=bus3053.1.2.3 phases=3 length=263 units=ft linecode=oh_3p_type1
new object=line.l_3053_3054 bus1=bus3053.1.2.3 bus2=bus3054.1.2.3 phases=3 length=280 units=ft linecode=ug_3p_type2
new object=line.l_3053_3055 bus1=bus3053.2 bus2=bus3055.2 phases=1 length=1335 units=ft linecode=ug_1p_type2
new object=line.l_3055_3056 bus1=bus3055.2 bus2=bus3056.2 phases=1 length=128 units=ft linecode=ug_1p_type2
new object=line.l_3056_3057 bus1=bus3056.2 bus2=bus3057.2 phases=1 length=178 units=ft linecode=ug_1p_type2
new object=line.l_3057_3058 bus1=bus3057.2 bus2=bus3058.2 phases=1 length=178 units=ft linecode=ug_1p_type2
new object=line.l_3058_3059 bus1=bus3058.2 bus2=bus3059.2 phases=1 length=274 units=ft linecode=ug_1p_type2
new object=line.l_3059_3060 bus1=bus3059.2 bus2=bus3060.2 phases=1 length=77 units=ft linecode=ug_1p_type2
new object=line.l_3060_3061 bus1=bus3060.2 bus2=bus3061.2 phases=1 length=184 units=ft linecode=ug_1p_type2
new object=line.l_3055_3062 bus1=bus3055.2 bus2=bus3062.2 phases=1 length=443 units=ft linecode=ug_1p_type2
new object=line.l_3062_3063 bus1=bus3062.2 bus2=bus3063.2 phases=1 length=198 units=ft linecode=ug_1p_type2
new object=line.l_3063_3064 bus1=bus3063.2 bus2=bus3064.2 phases=1 length=157 units=ft linecode=ug_1p_type2
new object=line.l_3064_3065 bus1=bus3064.2 bus2=bus3065.2 phases=1 length=205 units=ft linecode=ug_1p_type2
new object=line.l_3065_3066 bus1=bus3065.2 bus2=bus3066.2 phases=1 length=123 units=ft linecode=ug_1p_type2
new object=line.l_3066_3067 bus1=bus3066.2 bus2=bus3067.2 phases=1 length=274 units=ft linecode=ug_1p_type2
new object=line.l_3030_3040 bus1=bus3030.1.2.3 bus2=bus3040.1.2.3 phases=3 length=332 units=ft linecode=oh_3p_type1
new object=line.l_3040_3044 bus1=bus3040.3 bus2=bus3044.3 phases=1 length=144 units=ft linecode=oh_1p_type5
new object=line.l_3044_3045 bus1=bus3044.3 bus2=bus3045.3 phases=1 length=393 units=ft linecode=oh_1p_type5
new object=line.l_3040_3041 bus1=bus3040.3 bus2=bus3041.3 phases=1 length=121 units=ft linecode=oh_1p_type5
new object=line.l_3041_3042 bus1=bus3041.3 bus2=bus3042.3 phases=1 length=328 units=ft linecode=oh_1p_type5
new object=line.l_3042_3043 bus1=bus3042.3 bus2=bus3043.3 phases=1 length=418 units=ft linecode=oh_1p_type5
new object=line.l_3040_3046 bus1=bus3040.1.2.3 bus2=bus3046.1.2.3 phases=3 length=329 units=ft linecode=oh_3p_type1
new object=line.l_3046_3047 bus1=bus3046.1.2.3 bus2=bus3047.1.2.3 phases=3 length=219 units=ft linecode=oh_3p_type1
new object=line.l_3046_3048 bus1=bus3046.1.2.3 bus2=bus3048.1.2.3 phases=3 length=130 units=ft linecode=oh_3p_type1
new object=line.l_3048_3049 bus1=bus3048.1.2.3 bus2=bus3049.1.2.3 phases=3 length=226 units=ft linecode=oh_3p_type1
new object=line.l_3049_3050 bus1=bus3049.1.2.3 bus2=bus3050.1.2.3 phases=3 length=167 units=ft linecode=oh_3p_type1
new object=line.l_3050_3051 bus1=bus3050.1.2.3 bus2=bus3051.1.2.3 phases=3 length=360 units=ft linecode=oh_3p_type1
new object=line.l_3051_3052 bus1=bus3051.1.2.3 bus2=bus3052.1.2.3 phases=3 length=292 units=ft linecode=oh_3p_type1
new object=line.l_3030_3031 bus1=bus3030.1.2.3 bus2=bus3031.1.2.3 phases=3 length=243 units=ft linecode=oh_3p_type1
new object=line.l_3031_3032 bus1=bus3031.1.2.3 bus2=bus3032.1.2.3 phases=3 length=251 units=ft linecode=oh_3p_type1
new object=line.l_3032_3033 bus1=bus3032.1.2.3 bus2=bus3033.1.2.3 phases=3 length=388 units=ft linecode=oh_3p_type1
new object=line.l_3033_3034 bus1=bus3033.1.2.3 bus2=bus3034.1.2.3 phases=3 length=257 units=ft linecode=oh_3p_type1
...
new object=loadshape.1003_loadcurve interval=1 npts=24 useactual=yes mult=(15.434,14.526,15.054,14.667,13.87,13.516,12.884,13.43,11.331,11.749,11.511,11.72,11.063,14.099,12.124,11.395,11.945,12.189,12.612,13.385,13.923,14.158,13.13,14.626) qmult=(3.8681,4.2367,7.291,6.6825,5.9086,5.3419,5.8701,5.7212,3.7243,5.6903,4.5494,1.67,2.2464,4.1122,4.7917,4.8542,2.4255,5.5535,4.1454,3.3546,5.5027,6.857,5.1893,6.6638)
new object=loadshape.1004_loadcurve interval=1 npts=24 useactual=yes mult=(6.913,6.73,6.833,6.941,6.915,6.691,7.306,11.51,14.474,19.695,19.69,18.02,17.975,12.407,9.221,10.019,8.176,6.436,6.496,6.618,6.564,6.52,6.101,7.343) qmult=(2.9449,2.6599,3.3094,3.3617,2.2729,3.0485,2.1309,2.3372,7.0101,3.9992,3.9982,2.5677,8.1897,4.5031,3.0308,1.4276,2.0491,0.9171,3.1462,1.6586,1.6451,2.9706,1.5291,2.4135)
new object=loadshape.1005_loadcurve interval=1 npts=24 useactual=yes mult=(5.05,4.978,5.072,5.092,5.583,4.963,5.876,4.692,4.326,5.434,11.284,9.336,9.978,9.331,7.307,7.011,8.049,11.693,6.849,3.564,5.272,3.493,3.516,3.482) qmult=(1.8329,2.268,1.2712,1.6737,0.7955,1.4475,2.5032,1.3685,0.8784,1.7861,2.2913,3.0686,2.5007,3.975,1.4837,2.0449,3.4289,1.6662,2.7069,1.4086,1.0705,1.3805,1.6019,1.1445)
new object=loadshape.1006_1_loadcurve interval=1 npts=24 useactual=yes mult=(2.16,2.02,2.34,2.36,2.14,2.28,2.38,1.94,1.88,1.94,1.94,4.52,4.64,4.94,4.58,4.32,4.76,2.32,1.28,1.84,1.58,1.9,1.64,1.58) qmult=(1.0461,0.4102,0.4752,0.4792,0.5363,1.1043,0.6942,0.3939,0.3818,0.7667,0.2764,2.0594,1.6841,2.1044,1.6623,1.568,1.3883,0.9883,0.3733,0.4611,0.396,0.9202,0.6482,0.7199)
new object=loadshape.1006_2_loadcurve interval=1 npts=24 useactual=yes mult=(2.16,2.02,2.34,2.36,2.14,2.28,2.38,1.94,1.88,1.94,1.94,4.52,4.64,4.94,4.58,4.32,4.76,2.32,1.28,1.84,1.58,1.9,1.64,1.58) qmult=(1.0461,0.4102,0.4752,0.4792,0.5363,1.1043,0.6942,0.3939,0.3818,0.7667,0.2764,2.0594,1.6841,2.1044,1.6623,1.568,1.3883,0.9883,0.3733,0.4611,0.396,0.9202,0.6482,0.7199)
new object=loadshape.1007_1_loadcurve interval=1 npts=24 useactual=yes mult=(1.7515,1.667,1.783,1.7275,1.6745,1.522,1.6725,1.4865,1.823,1.71,1.649,1.646,1.235,1.5585,1.5745,1.3375,1.366,1.5355,1.814,2.031,1.9885,2.0965,2.066,1.929) qmult=(0.6357,0.3385,0.2541,0.5678,0.4197,0.5003,0.2383,0.5395,0.8829,0.4286,0.7025,0.541,0.176,0.2221,0.7174,0.5286,0.6616,0.5047,0.7728,0.5924,0.2833,0.5254,0.7499,0.7624)
new object=loadshape.1007_2_loadcurve interval=1 npts=24 useactual=yes mult=(1.7515,1.667,1.783,1.7275,1.6745,1.522,1.6725,1.4865,1.823,1.71,1.649,1.646,1.235,1.5585,1.5745,1.3375,1.366,1.5355,1.814,2.031,1.9885,2.0965,2.066,1.929) qmult=(0.6357,0.3385,0.2541,0.5678,0.4197,0.5003,0.2383,0.5395,0.8829,0.4286,0.7025,0.541,0.176,0.2221,0.7174,0.5286,0.6616,0.5047,0.7728,0.5924,0.2833,0.5254,0.7499,0.7624)
new object=loadshape.1008_loadcurve interval=1 npts=24 useactual=yes mult=(7.414,10.375,10.849,10.888,10.972,6.517,5.961,6.422,6.202,5.826,5.318,5.196,4.9,5.031,5.474,9.587,7.917,7.374,5.887,6.998,5.096,4.812,5.246,5.471) qmult=(1.8581,5.0248,2.203,3.9518,2.7498,2.3654,1.9593,2.3309,1.8089,0.8302,1.5511,1.0551,1.6106,1.9884,2.6512,3.789,1.6076,1.4974,1.4754,1.421,2.1709,1.7465,1.5301,2.1623)
new object=loadshape.1009_loadcurve interval=1 npts=24 useactual=yes mult=(9.511,9.424,7.976,8.809,8.649,7.727,8.443,7.314,7.274,8.197,8.16,8.034,8.275,7.608,7.424,8.185,7.635,7.961,8.53,8.102,6.843,8.927,9.1,8.888) qmult=(4.3333,4.5643,1.1365,4.2664,2.1676,3.7424,3.3369,2.404,2.6401,3.4919,1.657,2.0135,2.7199,3.6847,3.3825,3.9642,1.9135,1.6165,2.1378,3.924,2.2492,4.0673,1.8478,3.2259)
new object=loadshape.1010_loadcurve interval=1 npts=24 useactual=yes mult=(4.569,5.298,4.967,3.913,4.019,3.212,4.119,4.021,3.513,4.024,6.047,5.522,5.826,6.059,7.094,4.426,7.176,6.127,7.391,6.652,7.048,5.819,10.921,6.803) qmult=(1.6583,0.7549,1.9631,0.5576,0.8161,0.6522,1.7547,1.832,0.7133,0.5734,2.9287,1.6106,2.6544,2.1991,1.0108,1.4548,1.4571,2.0138,2.6826,3.2217,3.0024,0.8292,4.9758,3.2948)
new object=loadshape.1011_loadcurve interval=1 npts=24 useactual=yes mult=(2.954,2.76,3.025,2.891,2.842,3.99,2.718,2.389,5.452,3.722,4.3,3.023,2.732,3.269,6.523,5.537,4.506,3.557,3.671,5.234,4.744,3.411,6.21,3.275) qmult=(1.2584,0.805,1.4651,0.7246,0.7123,1.1638,0.7928,1.0885,1.9788,1.6958,1.8318,0.8817,0.3893,1.0745,2.7788,2.5227,1.1293,0.7223,1.3324,2.3847,1.7218,1.4531,1.8113,0.8208)
new object=loadshape.1012_loadcurve interval=1 npts=24 useactual=yes mult=(3.035,1.38,1.609,1.299,1.789,1.44,1.207,1.209,2.026,3.172,7.231,10.1,5.458,8.783,10.162,4.741,5.273,4.223,5.406,9.523,12.443,8.275,1.668,1.473) qmult=(1.4699,0.5454,0.7331,0.427,0.588,0.6134,0.3967,0.4778,0.9231,0.6441,2.109,4.8917,1.981,2.8868,4.0163,1.1882,1.3215,1.799,1.9621,2.7775,5.3007,3.0034,0.4865,0.3692)
new object=loadshape.1013_loadcurve interval=1 npts=24 useactual=yes mult=(2.289,2.302,2.71,2.294,2.308,2.328,2.446,2.665,1.973,2.113,1.972,2.673,2.226,1.648,1.686,1.839,1.723,2.22,5.32,3.268,2.775,2.394,2.411,2.251) qmult=(0.9047,0.8355,1.3125,0.5749,0.7586,0.3317,0.613,0.9673,0.8989,0.7669,0.9551,0.5428,0.5579,0.7509,0.4918,0.262,0.8345,0.8774,1.0803,1.4889,1.1821,0.3411,0.4896,1.0256)
new object=loadshape.1014_loadcurve interval=1 npts=24 useactual=yes mult=(0.751,0.547,0.484,0.371,0.32,0.423,0.302,0.327,0.859,0.491,0.404,0.971,0.479,0.364,0.408,0.446,0.509,3.195,1.209,2.715,1.44,0.633,0.432,0.36) qmult=(0.1525,0.2162,0.069,0.0753,0.065,0.139,0.0613,0.1584,0.3395,0.1941,0.1957,0.2434,0.2182,0.1439,0.1341,0.2032,0.2012,1.5474,0.5855,1.3149,0.5691,0.1586,0.126,0.1744)
new object=loadshape.1015_loadcurve interval=1 npts=24 useactual=yes mult=(0.614,0.522,0.437,0.401,0.42,0.417,0.415,0.43,0.469,0.748,0.611,0.761,0.929,0.899,0.924,2.758,5.948,2.36,2.035,4.46,3.457,1.93,0.718,0.697) qmult=(0.1539,0.0744,0.0623,0.1318,0.138,0.0847,0.104,0.1254,0.0952,0.2715,0.2415,0.222,0.2328,0.2955,0.2695,0.9065,0.8475,0.4792,0.9272,1.9,0.4926,0.8222,0.236,0.1415)
new object=loadshape.1016_loadcurve interval=1 npts=24 useactual=yes mult=(3.035,1.38,1.609,1.299,1.789,1.44,1.207,1.209,2.026,3.172,7.231,10.1,5.458,8.783,10.162,4.741,5.273,4.223,5.406,9.523,12.443,8.275,1.668,1.473) qmult=(1.1995,0.1966,0.584,0.5918,0.8151,0.6974,0.4381,0.303,0.7353,1.2537,3.2945,2.5313,2.1571,2.8868,4.9217,1.5583,1.9138,1.669,2.1366,1.357,5.3007,3.2705,0.7106,0.2099)
new object=loadshape.1017_loadcurve interval=1 npts=24 useactual=yes mult=(2.19,2.974,1.703,2.508,4.918,5.823,3.388,3.551,3.073,2.822,5.599,6.715,1.606,4.118,4.7,3.963,3.628,2.472,4.302,6.445,4.099,6.125,3.972,1.983) qmult=(0.6388,0.8674,0.4967,0.6286,1.785,2.4806,1.6409,1.5127,0.8963,1.2022,2.7117,2.6539,0.2288,1.0321,1.5448,0.5647,0.9093,0.721,1.0782,2.3392,1.8676,1.2437,1.8097,0.4027)
new object=loadshape.2002_loadcurve interval=1 npts=24 useactual=yes mult=(30.42,30.68,31.68,32.44,30.64,31.08,30.66,29.96,28.84,30.8,40.02,40.12,37.72,38.2,39.78,39.44,38.44,43.76,42.02,40.66,42.68,40.8,41.08,41.2) qmult=(9.9986,12.1255,9.24,8.1302,14.8396,9.065,8.9425,11.8409,9.4792,14.9171,19.3826,10.055,14.9079,16.2731,18.1243,14.3148,13.9519,19.9376,16.6074,17.3211,16.8682,16.1252,13.5023,18.7713)
new object=loadshape.2003_loadcurve interval=1 npts=24 useactual=yes mult=(11.792,12.049,12.591,11.48,10.414,10.625,10.478,11.106,5.995,5.524,7.608,6.459,4.886,8.799,4.529,3.552,4.438,5.294,6.489,9.4,10.233,10.399,10.899,11.508) qmult=(1.6803,2.4467,2.5567,2.8772,4.1159,4.8409,3.444,5.06,2.5539,1.6112,3.241,1.6188,1.2245,2.8921,1.79,1.1675,1.754,1.5441,2.5646,3.4117,3.7141,1.4818,4.643,4.9024)
new object=loadshape.2005_loadcurve interval=1 npts=24 useactual=yes mult=(6.964,7.121,6.764,6.402,6.464,7.083,6.523,6.485,5.335,5.539,8.839,9.933,10.373,8.631,8.181,7.418,4.55,6.26,6.162,4.745,9.947,7.603,9.27,9.147) qmult=(0.9923,2.3406,3.0818,2.7272,2.5547,3.2271,2.5781,2.1315,0.7602,2.1892,4.2809,3.6052,4.0997,3.9324,2.9693,2.9318,0.9239,2.6667,2.8075,2.2981,1.4174,1.5439,3.6637,1.8574)
new object=loadshape.2008_loadcurve interval=1 npts=24 useactual=yes mult=(2.015,1.875,1.722,1.845,1.586,1.727,1.569,1.572,1.816,2.039,1.456,1.227,1.154,1.286,1.326,1.409,1.235,1.243,2.184,2.423,2.656,2.193,1.751,2.008) qmult=(0.4092,0.7987,0.834,0.8406,0.5213,0.5037,0.3932,0.394,0.2588,0.2905,0.6634,0.5943,0.4561,0.3751,0.3867,0.2008,0.2508,0.1771,1.0578,0.7067,0.7747,0.7208,0.5755,0.7936)
new object=loadshape.2009_loadcurve interval=1 npts=24 useactual=yes mult=(0.674,0.69,0.622,0.582,0.69,0.935,0.942,0.646,0.613,0.697,0.807,0.548,0.538,0.516,0.589,0.536,0.48,0.402,0.851,0.762,0.78,0.716,1.125,0.548) qmult=(0.2871,0.1729,0.265,0.2479,0.3342,0.3073,0.2747,0.2943,0.0873,0.253,0.2929,0.2654,0.2606,0.1293,0.1476,0.1088,0.2187,0.1589,0.3625,0.2223,0.3323,0.1454,0.4083,0.2654)
new object=loadshape.2010_loadcurve interval=1 npts=24 useactual=yes mult=(1.729,1.289,1.495,1.288,1.198,1.324,1.357,1.451,1.47,1.071,2.254,1.151,0.989,1.19,3.29,3.322,6.231,3.407,1.341,0.992,1.303,2.585,1.424,1.564) qmult=(0.2464,0.1837,0.213,0.5487,0.4348,0.4805,0.6183,0.3637,0.2095,0.1526,1.027,0.4903,0.2479,0.4319,0.6681,1.2057,2.6544,0.9937,0.1911,0.2893,0.5551,1.0217,0.6488,0.6663)
new object=loadshape.2011_loadcurve interval=1 npts=24 useactual=yes mult=(7.185,5.959,5.84,6.165,5.868,5.937,5.982,6.176,5.983,6.044,6.59,4.745,4.885,5.084,4.463,4.127,6.293,7.177,5.994,5.011,5.999,5.396,5.054,4.825) qmult=(2.0956,1.21,1.4636,1.7981,2.6735,2.1548,0.8524,2.03,1.2149,2.3887,1.6516,1.7222,1.2243,2.1658,1.4669,1.8803,1.2778,1.7987,2.7309,1.4615,2.371,2.1326,1.8344,0.6875)
new object=loadshape.2014_loadcurve interval=1 npts=24 useactual=yes mult=(2.191,2.225,2.695,2.251,2.778,3.527,2.65,1.968,1.919,2.316,2.696,1.992,2.043,6.732,2.831,2.968,1.834,2.832,2.207,4.618,5.855,6.553,2.343,2.647) qmult=(0.7952,0.649,0.9782,0.817,1.0083,1.6069,1.2835,0.2804,0.8743,0.7612,1.3057,0.4045,0.9308,2.8678,1.3711,1.173,0.8356,1.0279,0.6437,2.2366,1.7077,0.9338,1.1348,0.87)
new object=loadshape.2015_loadcurve interval=1 npts=24 useactual=yes mult=(1.588,1.618,1.187,1.425,1.442,1.341,1.4,1.231,1.439,1.231,1.261,1.411,1.254,1.485,1.323,1.922,3.226,3.329,1.71,1.462,1.365,1.79,1.55,1.644) qmult=(0.7235,0.3285,0.5749,0.6902,0.2928,0.2723,0.4083,0.5244,0.473,0.5609,0.2561,0.2865,0.3143,0.6326,0.5229,0.6317,1.5624,1.0942,0.3472,0.6661,0.3981,0.7075,0.3885,0.412)
new object=loadshape.2016_loadcurve interval=1 npts=24 useactual=yes mult=(1.787,1.707,1.677,1.634,1.688,2.193,3.665,2.425,2.407,2.948,2.05,1.859,2.273,2.293,2.144,2.204,2.216,3.451,2.508,2.034,2.316,2.576,2.732,2.928) qmult=(0.7063,0.3466,0.7641,0.4766,0.4923,0.8667,1.3302,0.6078,0.4888,0.969,0.8102,0.4659,0.9683,0.9063,0.9133,0.7999,1.0096,0.4917,0.7315,0.5098,0.9866,0.7513,1.3232,1.2473)
new object=loadshape.2017_loadcurve interval=1 npts=24 useactual=yes mult=(6.123,3.861,4.369,3.721,4.445,3.931,3.629,4.274,4.363,3.741,4.214,5.689,7.311,7.18,4.823,8.008,8.954,6.215,5.467,7.184,7.733,3.047,3.282,3.023) qmult=(2.9655,0.5502,1.2743,1.3505,1.8936,0.5601,1.3172,1.0712,1.0935,1.0911,0.8557,1.6593,2.6535,2.0942,1.9062,1.1411,3.2499,2.0428,1.3702,1.0237,3.5233,1.1059,1.4953,0.9936)
new object=loadshape.2018_loadcurve interval=1 npts=24 useactual=yes mult=(3.065,3.668,3.857,3.434,3.556,3.29,3.914,4.904,7.337,5.92,4.872,3.938,3.198,3.336,3.242,3.217,3.805,4.348,5.426,4.3,3.409,3.183,3.403,3.178) qmult=(1.4844,1.4497,0.5496,1.1287,1.1688,1.0814,0.9809,1.6119,2.8998,1.9458,0.9893,1.2944,1.5489,1.6157,1.1767,0.9383,1.6209,1.5781,2.1445,1.6995,0.8544,1.1553,0.9925,1.1535)
new object=loadshape.2020_loadcurve interval=1 npts=24 useactual=yes mult=(5.17,4.525,4.506,4.676,4.431,4.975,4.729,4.638,4.22,4.316,3.808,4.237,3.681,4.049,5.919,6.875,6.435,10.226,9.56,9.785,8.512,4.707,3.756,3.7) qmult=(2.3555,1.9276,2.1824,0.6663,1.2924,1.0102,1.1852,2.1131,0.6013,2.0903,1.3821,1.2358,0.9225,1.0148,1.9455,2.0052,1.8769,4.9527,3.4698,3.2162,2.7978,2.1446,0.5352,1.3429)
new object=loadshape.2022_loadcurve interval=1 npts=24 useactual=yes mult=(1.658,1.453,1.453,1.457,1.418,1.162,1.769,1.343,1.253,2.535,1.842,1.986,3.298,2.912,4.481,1.68,1.71,1.298,1.21,1.505,3.772,3.511,5.697,2.15) qmult=(0.545,0.619,0.207,0.2076,0.5147,0.5628,0.8568,0.4414,0.3655,1.155,0.8921,0.6528,1.3035,1.3267,0.9099,0.49,0.8282,0.3786,0.5513,0.7289,1.7186,1.3876,2.0677,0.5388)
new object=loadshape.2023_loadcurve interval=1 npts=24 useactual=yes mult=(0.703,0.694,0.661,0.756,0.655,0.71,0.663,0.599,0.32,0.355,0.284,0.336,0.29,0.362,0.293,0.447,0.306,0.312,1.947,2.476,2.736,3.125,2.222,0.683) qmult=(0.2311,0.2743,0.3012,0.2988,0.1642,0.1779,0.2179,0.1747,0.1458,0.1403,0.1294,0.0842,0.1405,0.119,0.1419,0.1304,0.0767,0.1329,0.488,0.7222,1.2466,0.4453,1.0124,0.2245)
new object=loadshape.2024_loadcurve interval=1 npts=24 useactual=yes mult=(2.242,2.222,2.098,1.99,2.107,2.123,2.709,3.071,2.278,2.849,1.695,2.133,1.646,1.46,1.63,1.605,1.658,1.669,2.28,2.249,2.338,2.312,2.508,2.6) qmult=(0.3195,0.8065,0.9559,0.7865,0.3002,0.4311,0.9832,0.7697,0.8268,0.5785,0.6152,0.843,0.5974,0.6652,0.2323,0.5825,0.3367,0.5486,0.463,1.0247,0.6819,1.1198,1.2147,0.7583)
new object=loadshape.2025_loadcurve interval=1 npts=24 useactual=yes mult=(4.584,1.913,2.143,1.89,1.67,1.587,2.09,1.587,1.767,1.856,4.193,2.431,2.249,2.076,2.381,2.575,2.524,1.91,2.47,4.428,4.553,3.362,6.952,3.931) qmult=(1.337,0.9265,0.7778,0.747,0.5489,0.3977,0.7586,0.7231,0.5808,0.5413,2.0308,0.6093,0.9581,0.4215,0.6945,0.6454,1.0752,0.7549,0.7204,2.1446,0.9245,0.4791,1.4117,1.4268)
new object=loadshape.2028_loadcurve interval=1 npts=24 useactual=yes mult=(0.932,0.983,0.991,1.034,1.003,0.897,1.023,1.042,0.949,0.901,0.909,0.929,1.337,1.46,3.268,4.8,3.638,1.493,1.086,0.977,0.921,0.889,0.962,0.942) qmult=(0.3383,0.3231,0.48,0.4087,0.4273,0.4087,0.3713,0.1485,0.1927,0.2258,0.2651,0.1324,0.39,0.6652,0.819,0.9747,1.3204,0.7231,0.357,0.3861,0.2686,0.3227,0.4383,0.3723)
new object=loadshape.2029_loadcurve interval=1 npts=24 useactual=yes mult=(9.016,8.392,8.192,8.336,8.803,8.344,9.06,8.449,4.962,4.497,4.316,4.006,3.817,3.61,3.947,4.015,3.942,4.063,4.575,7.339,8.554,8.426,8.724,8.588) qmult=(3.5634,2.7583,3.2377,3.798,3.1951,1.6943,2.6425,2.4643,1.801,1.3116,2.0903,1.5833,0.9566,1.3103,1.7983,0.8153,1.9092,1.8512,2.2158,1.8393,4.1429,2.1118,2.5445,3.3942)
new object=loadshape.2030_loadcurve interval=1 npts=24 useactual=yes mult=(5.527,5.21,4.925,4.891,5.193,5.048,5.071,4.727,3.721,3.63,8.883,8.299,4.223,3.747,5.233,5.068,3.949,4.565,9.57,9.892,5.277,4.085,4.199,3.977) qmult=(2.006,1.3057,0.7018,0.9932,0.74,1.4723,0.7226,0.9599,1.8022,1.1931,2.2263,2.4205,1.9241,1.8148,2.0682,2.309,1.4333,0.927,3.7823,2.4792,2.0856,0.8295,1.3801,1.812)
new object=loadshape.2031_loadcurve interval=1 npts=24 useactual=yes mult=(4.09,3.609,4.334,3.519,3.536,3.849,3.454,3.942,4.104,2.956,3.018,3.165,2.806,3.776,3.454,4.706,3.222,2.546,2.944,2.684,3.267,3.065,2.845,2.754) qmult=(1.6165,0.7328,1.2641,1.7043,1.2834,1.397,0.8657,1.6793,1.9877,0.9716,0.6128,1.0403,1.359,0.7667,1.1353,1.1794,1.468,0.3628,0.7378,1.2999,0.4655,1.3057,0.5777,1.0885)
new object=loadshape.2032_loadcurve interval=1 npts=24 useactual=yes mult=(1.224,1.188,1.094,1.177,1.069,0.952,1.026,0.716,0.586,0.925,0.692,0.963,2.351,2.415,0.78,1.443,0.55,0.455,0.526,1.042,1.416,1.905,1.499,1.068) qmult=(0.357,0.5754,0.2221,0.3869,0.1523,0.2777,0.3372,0.283,0.2496,0.448,0.2735,0.4664,0.8533,0.9545,0.1111,0.6147,0.2174,0.0924,0.2241,0.4747,0.2018,0.3868,0.683,0.4221)
new object=loadshape.2034_loadcurve interval=1 npts=24 useactual=yes mult=(2.926,2.07,2.964,1.728,1.8,1.738,1.955,2.083,1.652,1.455,1.866,1.421,1.968,2.935,2.192,1.22,1.28,1.079,1.798,2.349,6.219,5.25,1.79,1.83) qmult=(1.3331,0.9431,0.6019,0.8369,0.5916,0.7919,0.2786,0.423,0.7037,0.5281,0.7949,0.5158,0.7143,0.596,0.8663,0.3558,0.1824,0.1537,0.5244,1.1377,2.0441,2.2365,0.8155,0.8338)
new object=loadshape.2035_loadcurve interval=1 npts=24 useactual=yes mult=(4.579,4.133,4.238,3.57,4.072,3.806,3.782,3.697,3.133,7.225,15.162,21.6,19.459,12.721,13.654,12.281,11.652,7.733,2.721,3.188,7.187,4.106,2.533,2.773) qmult=(0.9298,1.7607,1.0621,1.729,1.0205,1.1101,1.8317,0.9266,0.4464,1.8108,5.9924,9.8413,5.6755,3.1882,5.8166,4.0366,3.3985,3.7453,0.8943,1.1571,2.6085,1.1976,0.6348,0.695)
new object=loadshape.2037_loadcurve interval=1 npts=24 useactual=yes mult=(4.25,4.275,4.763,4.247,4.315,4.187,4.172,4.195,4.001,7.896,3.528,2.153,2.228,3.307,4.054,3.044,2.02,2.04,2.051,2.24,2.546,3.189,2.588,2.529) qmult=(0.6056,1.6896,1.1937,0.8624,1.7054,1.5197,1.3713,1.5226,1.8229,3.8242,1.5029,1.0427,1.0791,0.4712,0.5777,1.1048,0.9783,0.7404,0.7444,0.813,1.2331,1.0482,0.3688,0.9179)
new object=loadshape.2040_loadcurve interval=1 npts=24 useactual=yes mult=(61.52,61.52,60.92,63.72,72.64,76.44,83.64,83.52,70.36,68.6,62.2,61.4,61.32,62.04,62.6,60.6,57.64,67.92,72.96,72.16,68.84,72.84,65.2,63.88) qmult=(20.2206,22.3288,20.0234,25.1838,30.9445,32.5633,11.9181,35.5794,32.057,33.2245,12.6302,27.9747,29.6986,26.4289,30.3186,17.675,26.2616,24.6517,33.2416,34.9487,29.3257,21.245,13.2394,27.2128)
new object=loadshape.2041_loadcurve interval=1 npts=24 useactual=yes mult=(1.752,1.711,1.796,2.045,1.648,1.683,1.809,1.892,1.672,1.674,1.564,1.742,2.168,1.709,3.006,1.816,1.673,1.55,1.607,1.572,1.656,1.659,2.095,1.942) qmult=(0.511,0.4288,0.8698,0.7422,0.4807,0.6108,0.7706,0.862,0.3395,0.6616,0.5677,0.6323,0.9878,0.8277,1.3696,0.3688,0.8103,0.3885,0.3263,0.5167,0.802,0.5453,0.6886,0.5664)
new object=loadshape.2042_loadcurve interval=1 npts=24 useactual=yes mult=(4.753,5.298,5.118,5.164,5.082,4.992,4.99,4.946,3.994,4.242,4.024,3.789,3.19,2.851,3.494,2.756,3.476,2.502,2.482,3.472,3.336,3.7,3.712,4.013) qmult=(2.0248,2.2569,2.0228,1.6973,1.4823,2.2744,1.4554,2.107,1.7014,1.5396,1.4605,1.2454,1.2608,0.8315,0.7095,1.0003,1.0138,1.0658,0.3537,1.6816,1.3185,0.7513,0.9303,0.8149)
new object=loadshape.2043_loadcurve interval=1 npts=24 useactual=yes mult=(6.001,7.342,5.729,5.441,5.446,5.371,5.48,5.319,4.739,6.502,7.176,6.907,6.81,7.468,7.376,7.965,7.358,4.707,5.567,5.298,4.947,5.002,4.934,4.889) qmult=(1.9724,2.9017,2.2642,2.479,2.6376,1.3461,2.3345,2.1022,2.1592,2.9624,1.0225,1.4025,2.4717,3.1814,2.9152,3.629,3.5636,1.5471,2.6962,0.7549,0.7049,2.4226,1.95,2.0827)
new object=loadshape.2045_loadcurve interval=1 npts=24 useactual=yes mult=(2.049,2.121,2.213,2.167,2.124,2.452,2.143,2.256,2.543,4.376,2.616,2.133,2.168,2.548,2.181,2.204,2.512,2.204,2.15,2.128,2.216,2.522,2.248,2.204) qmult=(0.8098,0.9035,0.9427,0.5431,0.6195,0.8059,0.7044,0.8188,1.2316,0.8886,0.763,0.9087,0.7869,1.1609,0.862,0.8711,0.6296,1.0042,0.5388,0.5333,1.0096,0.8289,0.3203,0.5524)
new object=loadshape.2046_loadcurve interval=1 npts=24 useactual=yes mult=(5.341,4.558,4.602,4.417,4.387,4.325,4.81,5.65,6.502,8.958,6.408,7.27,6.045,5.187,4.59,4.147,3.703,3.904,6.096,8.72,8.404,6.576,5.056,4.448) qmult=(1.5578,1.4981,1.8188,1.2883,0.6251,0.6163,1.4029,2.0507,2.7698,2.9444,2.9196,2.1204,0.8614,1.7049,0.932,0.5909,1.6871,0.7927,2.4093,3.9729,1.7065,2.8014,2.4487,1.2973)
new object=loadshape.2047_loadcurve interval=1 npts=24 useactual=yes mult=(7.303,5.282,5.162,5.148,5.492,5.107,4.839,6.906,7.542,15.827,10.136,12.416,12.382,15.768,13.501,9.214,8.689,9.621,9.39,9.192,11.758,8.832,9.146,10.137) qmult=(2.13,2.0876,1.5056,2.193,1.6018,1.8536,1.2128,3.1465,1.0747,6.2552,4.6181,3.6213,5.6414,7.1841,4.9002,1.871,3.1537,1.9536,1.9067,1.8665,3.8647,1.7934,1.8572,4.0064)
new object=loadshape.2048_loadcurve interval=1 npts=24 useactual=yes mult=(4.626,3.732,3.277,3.238,3.194,4.379,4.25,3.821,4.301,4.161,4.451,4.301,3.736,4.432,7.144,6.503,5.659,7.671,8.157,8.418,7.325,7.015,6.033,4.275) qmult=(1.1594,1.475,0.9558,1.3794,0.6486,1.7307,1.2396,1.5102,1.0779,1.8958,1.8961,1.9596,0.7586,0.6315,3.0433,2.7703,2.4107,1.5577,2.0443,2.1097,3.3374,3.3975,1.512,1.4051)
new object=loadshape.2049_loadcurve interval=1 npts=24 useactual=yes mult=(3.561,3.441,3.301,3.449,3.518,3.451,3.242,3.33,4.923,3.622,4.633,4.711,7.066,7.806,3.538,5.533,6.527,3.674,5.562,4.041,4.877,4.336,5.609,3.743) qmult=(1.6224,0.4903,1.5987,1.1336,1.6028,1.1343,1.1767,0.9712,2.3843,1.4315,2.2439,0.6713,3.0101,3.7806,1.5072,2.0082,1.9037,1.2076,2.5341,1.5971,2.222,0.6178,1.4057,1.8128)
new object=loadshape.2050_loadcurve interval=1 npts=24 useactual=yes mult=(3.361,2.464,2.189,2.465,1.957,2.465,3.084,2.383,2.945,2.542,3.26,2.494,4.274,8.187,5.109,9.108,3.594,3.048,3.299,5.214,3.664,4.702,4.939,3.449) qmult=(1.1047,0.8099,0.9325,0.8947,0.4905,1.1939,0.7729,1.1541,0.598,0.6371,1.5789,0.7274,1.0712,2.9715,1.6792,3.3058,1.1813,0.7639,1.1974,1.0587,0.744,2.2773,0.7038,0.4915)
new object=loadshape.2051_loadcurve interval=1 npts=24 useactual=yes mult=(6.696,4.355,4.928,4.166,4.888,4.144,3.975,5.499,6.985,6.976,9.857,4.887,5.031,6.984,10.728,5.416,4.401,8.892,9.465,8.534,10.188,8.414,5.838,4.626) qmult=(0.9541,1.4314,1.2351,1.5121,1.7741,1.2087,1.8111,1.9959,1.7506,1.4165,2.875,1.7737,1.4674,0.9952,4.5701,1.9657,1.4465,4.3066,4.0321,2.805,2.9715,2.7655,2.3073,0.9393)
new object=loadshape.2052_loadcurve interval=1 npts=24 useactual=yes mult=(68.824,70.224,69.281,69.103,70.239,72.921,69.195,65.686,64.872,66.182,65.069,64.628,56.635,61.086,61.671,68.402,68.326,69.977,76.615,76.063,69.559,69.083,68.703,67.405) qmult=(33.333,23.0815,14.0681,27.3113,23.0864,23.968,33.5127,9.3597,21.3224,28.1934,18.9785,31.3008,18.615,27.8316,29.8686,27.0342,24.799,33.8914,30.2802,15.4453,31.692,31.4751,31.302,32.6457)
new object=loadshape.2053_loadcurve interval=1 npts=24 useactual=yes mult=(5.28,5.28,5.6,5.28,5.68,5.28,5.56,5.52,5.24,5.16,7.84,4.32,4.2,4.84,4.48,4.2,4.24,4.24,5.16,5.36,5.4,5.52,5.48,5.64) qmult=(1.54,2.5572,1.8406,2.5572,1.6567,1.0721,1.3935,1.8143,2.5378,2.4991,3.7971,1.8403,1.0526,1.213,1.7706,1.6599,1.2367,0.6042,2.351,2.2834,2.1342,1.3834,1.5983,1.645)
new object=loadshape.2054_loadcurve interval=1 npts=24 useactual=yes mult=(4.809,4.314,3.998,4.199,4.238,4.49,4.684,4.214,8.109,4.918,4.638,6.301,8.077,6.923,7.808,5.975,7.745,6.827,9.619,7.518,8.799,6.521,5.392,4.152) qmult=(0.6852,2.0894,0.8118,0.5983,0.8606,1.6297,1.9954,1.3851,3.6946,2.3819,1.5244,2.071,3.4408,2.2755,2.8339,2.3615,1.5727,0.9728,1.3706,2.7287,2.5664,3.1583,1.957,1.7687)
new object=loadshape.2055_loadcurve interval=1 npts=24 useactual=yes mult=(3.377,3.166,2.99,3.568,2.817,3.104,3.021,3.994,6.471,5.685,5.713,3.968,8.388,8.377,9.447,6.211,5.247,12.519,10.186,9.132,12.675,6.664,3.875,4.998) qmult=(0.4812,1.3487,0.8721,1.4102,1.3643,1.0202,0.993,1.9344,2.7566,2.5902,1.6663,1.9218,2.757,4.0572,2.7554,0.885,1.0654,1.7839,4.9333,2.6635,5.0095,2.8389,0.5522,1.6428)
new object=loadshape.2056_loadcurve interval=1 npts=24 useactual=yes mult=(4.521,3.585,4.362,3.635,4.152,4.183,3.495,4.859,4.676,8.323,9.67,7.371,7.773,4.346,5.317,4.724,3.805,3.396,4.467,5.047,3.952,3.827,4.089,3.595) qmult=(0.6442,1.7363,0.8857,1.4366,1.7687,0.8494,1.4889,1.5971,1.8481,3.5456,4.1194,3.5699,3.5415,1.7176,2.265,2.1523,0.9536,1.1162,2.0352,2.2995,1.914,1.7436,0.5827,0.73)
new object=loadshape.2058_loadcurve interval=1 npts=24 useactual=yes mult=(33.52,33.56,31.76,30.48,32.32,31.36,30.76,30.88,27.04,32.4,35.44,42.2,39.64,41.72,39.04,38.16,39.48,37.08,38.56,44.0,42.16,38.52,37.16,33.48) qmult=(6.8065,11.0306,4.5256,12.9844,9.4267,14.288,12.1571,12.2046,12.3198,14.7619,8.8821,17.9771,13.029,15.1423,18.9079,5.4375,14.3293,14.655,11.2467,15.9699,19.2087,17.5502,13.4873,9.765)
new object=loadshape.2059_loadcurve interval=1 npts=24 useactual=yes mult=(3.149,2.433,2.269,2.241,2.506,2.306,2.359,2.224,1.912,2.776,5.739,5.93,4.246,3.045,3.63,4.364,4.125,4.239,3.951,3.039,3.054,1.993,3.587,2.507) qmult=(0.4487,0.9616,0.8235,0.7366,0.7309,0.9114,0.688,0.3169,0.2724,0.5637,2.4448,2.7018,1.5411,1.0008,1.0588,1.5839,1.7572,1.5386,0.8023,0.6171,0.8908,0.7877,1.7373,1.2142)
new object=loadshape.2060_loadcurve interval=1 npts=24 useactual=yes mult=(0.53,0.413,0.438,0.5,1.063,0.484,0.431,0.43,0.402,1.321,2.344,4.364,4.213,1.77,1.6,4.533,2.855,2.749,4.655,4.696,0.826,0.335,0.219,0.576) qmult=(0.1742,0.1759,0.1731,0.1253,0.4843,0.1757,0.1836,0.2083,0.0573,0.4795,0.9985,1.4344,1.7947,0.4436,0.6324,2.1954,1.2162,0.3917,2.2545,2.1396,0.4001,0.0977,0.0866,0.2454)
new object=loadshape.3002_loadcurve interval=1 npts=24 useactual=yes mult=(2.533,2.697,2.179,2.832,1.871,2.583,5.346,5.946,7.203,8.879,5.712,5.496,3.147,4.089,6.617,5.623,4.45,5.091,4.565,3.598,2.777,4.636,5.402,5.663) qmult=(0.6348,0.9789,0.5461,1.0279,0.6791,1.1768,1.0856,2.8798,1.8052,4.0454,0.8139,1.3774,1.1422,1.344,0.9429,1.64,0.9036,1.8478,1.1441,1.422,0.81,1.5238,1.0969,2.2382)
new object=loadshape.3004_loadcurve interval=1 npts=24 useactual=yes mult=(4.452,4.878,3.634,2.424,2.795,3.397,2.747,1.906,2.02,4.094,2.717,3.287,3.242,3.98,2.65,2.306,2.395,4.711,4.671,5.088,3.69,6.302,4.857,2.491) qmult=(1.4633,2.3625,0.9108,1.1044,1.1907,0.484,1.3304,0.812,0.9203,1.8653,1.3159,1.4003,1.3811,1.6955,0.3776,0.7579,1.0912,2.1464,2.1282,1.0332,1.7871,2.6846,2.3524,0.9845)
new object=loadshape.3006_loadcurve interval=1 npts=24 useactual=yes mult=(5.555,5.829,5.516,5.518,5.473,5.533,5.777,5.417,4.961,5.069,6.429,10.767,10.405,7.678,6.22,6.301,7.39,7.588,4.74,6.541,6.534,3.524,3.567,3.58) qmult=(2.3664,1.7001,2.5132,2.1809,1.9864,2.5209,2.7979,1.7805,1.447,1.0293,1.6113,3.9079,3.7765,3.7186,2.4583,2.287,3.5791,2.999,0.6754,0.932,0.931,0.7156,0.894,1.0442)
new object=loadshape.3007_loadcurve interval=1 npts=24 useactual=yes mult=(10.358,8.431,7.719,7.578,10.663,7.391,8.709,6.033,11.105,7.838,6.719,8.111,10.144,10.102,9.651,9.705,8.467,7.589,7.79,13.135,14.435,10.091,8.799,7.968) qmult=(4.7192,1.2014,3.5169,3.4526,4.8582,3.1486,2.1827,2.7487,1.5824,1.9644,2.2084,3.9283,4.3213,1.4395,2.4188,4.7003,3.0731,2.7544,3.3185,6.3616,3.6178,3.9882,1.2538,3.1492)
new object=loadshape.3009_loadcurve interval=1 npts=24 useactual=yes mult=(2.906,2.678,2.508,2.753,2.415,3.888,3.08,4.223,4.939,7.572,7.401,3.992,2.473,6.512,8.371,7.208,9.853,8.651,4.877,6.594,6.818,9.77,6.569,3.615) qmult=(1.0547,1.297,0.5093,1.0881,0.7938,1.4112,0.8983,1.799,1.4405,2.7483,3.5845,1.5777,0.8128,2.967,3.566,3.491,1.404,1.7567,1.4225,2.1673,3.1064,4.4513,2.3842,0.906)
new object=loadshape.3010_loadcurve interval=1 npts=24 useactual=yes mult=(3.778,3.997,3.853,3.76,4.057,3.666,3.88,5.063,4.429,4.259,4.516,8.516,6.345,3.823,3.461,4.472,4.331,13.578,5.508,6.705,8.788,4.708,8.786,4.274) qmult=(1.4932,0.5695,1.7555,1.0967,1.4725,1.5617,0.7879,2.1568,1.7505,1.0674,2.0576,3.3657,2.0855,1.3876,0.4932,2.0375,0.8794,5.7842,1.9991,2.65,2.5632,0.956,3.7428,1.5513)
new object=loadshape.3011_loadcurve interval=1 npts=24 useactual=yes mult=(4.592,7.947,4.154,6.896,4.563,6.813,5.005,6.648,3.629,5.765,3.952,13.157,13.636,8.973,7.492,6.029,8.208,4.056,6.159,5.82,5.301,4.494,4.454,3.009) qmult=(1.5093,3.3854,1.8926,2.5029,1.3309,2.2393,1.2544,3.2198,1.1928,2.0924,1.6835,2.6716,6.2127,3.2568,2.4625,1.511,3.244,0.5779,2.4342,2.1124,1.0764,1.1263,1.464,1.0921)
new object=loadshape.3012_loadcurve interval=1 npts=24 useactual=yes mult=(4.1,4.234,4.142,4.066,3.732,3.796,3.648,3.793,5.67,4.866,5.468,6.285,6.283,4.8,6.502,4.809,5.932,3.271,3.085,5.698,4.715,6.495,5.269,5.094) qmult=(0.8325,1.8037,1.5033,0.8256,1.2266,1.1072,0.5198,1.1063,2.4154,2.0729,2.3294,1.8331,1.2758,1.8971,1.3203,1.2052,2.527,1.5842,1.1197,1.4281,0.6719,2.7669,1.7318,2.17)
new object=loadshape.3013_loadcurve interval=1 npts=24 useactual=yes mult=(2.854,1.777,1.468,1.469,1.429,1.28,1.255,1.416,1.535,1.657,2.656,2.031,2.466,1.714,2.176,2.253,2.459,2.554,4.043,4.668,6.08,5.584,8.635,7.205) qmult=(0.8324,0.2532,0.5802,0.2093,0.5648,0.5453,0.5346,0.6858,0.5571,0.7059,1.2864,0.509,1.1235,0.4296,0.3101,0.4575,0.3504,1.0094,1.0133,1.9886,1.7733,2.2069,1.7534,2.3682)
new object=loadshape.3014_loadcurve interval=1 npts=24 useactual=yes mult=(2.879,2.719,2.634,2.662,2.643,2.675,3.02,2.914,2.494,3.766,3.316,4.814,4.283,3.158,2.128,2.199,2.314,2.566,2.472,2.942,4.957,2.66,2.897,4.749) qmult=(1.1379,0.9869,0.5349,0.3793,0.5367,0.7802,0.8808,0.9578,1.0624,1.824,0.4725,0.686,1.0734,1.2481,0.7724,1.0019,0.5799,0.6431,0.502,1.0678,1.7992,0.8743,1.145,1.7237)
new object=loadshape.3016_loadcurve interval=1 npts=24 useactual=yes mult=(6.502,5.736,5.486,6.15,5.883,5.284,5.271,6.248,7.897,7.608,5.334,10.46,7.128,7.539,5.951,5.557,6.547,7.097,8.839,12.49,8.914,7.261,5.782,6.466) qmult=(2.5698,2.6134,1.114,1.7937,2.3251,1.5412,0.7511,2.6616,1.6036,1.0841,1.5557,2.124,3.4522,2.4779,2.352,2.1963,2.9829,1.7787,3.4934,1.7797,3.7973,1.8198,2.0986,1.6205)
new object=loadshape.3017_loadcurve interval=1 npts=24 useactual=yes mult=(10.486,8.122,5.581,5.279,5.782,5.039,5.752,7.81,12.7,12.081,8.696,12.34,9.745,14.473,14.134,10.159,10.442,13.524,14.652,11.83,13.365,13.033,9.637,5.778) qmult=(3.8059,1.6492,1.3987,1.323,2.0986,2.2958,0.8196,2.2779,5.4102,5.5043,2.1794,4.8771,4.7197,6.5941,6.0211,4.6286,3.0456,4.9086,4.2735,2.4022,4.8508,6.3122,3.1675,1.8991)
new object=loadshape.3018_loadcurve interval=1 npts=24 useactual=yes mult=(5.185,6.264,3.893,3.831,4.034,3.868,4.652,4.768,7.326,6.236,9.283,12.537,14.142,6.025,8.881,15.582,11.969,11.229,7.668,9.203,8.139,10.672,6.73,5.611) qmult=(1.2995,1.827,1.8855,1.8554,1.9538,0.9694,1.1659,1.8844,3.3378,2.2634,1.3228,3.1421,2.0151,0.8585,2.919,4.5447,4.7305,3.6908,3.0306,3.0249,1.6527,3.1127,2.4427,2.5564)
new object=loadshape.3019_loadcurve interval=1 npts=24 useactual=yes mult=(4.37,4.971,5.636,4.175,5.818,4.898,5.434,6.448,7.023,8.14,10.702,11.57,9.579,11.501,9.799,8.77,10.908,16.102,12.568,9.436,11.728,12.471,8.392,10.38) qmult=(0.8874,1.4499,1.6438,1.5153,2.4785,2.2316,2.1477,1.616,3.4014,1.1599,3.5176,5.2714,4.0806,4.1743,3.2208,4.2475,1.5543,2.2944,5.3539,2.7522,3.8548,5.682,1.7041,3.4117)
new object=loadshape.3020_loadcurve interval=1 npts=24 useactual=yes mult=(6.358,3.793,3.752,3.476,4.326,3.682,4.37,4.674,7.086,21.318,16.491,12.914,21.301,22.166,13.636,11.422,15.068,16.618,20.116,19.759,13.694,8.537,9.359,6.672) qmult=(1.8544,1.6158,1.2332,1.1425,1.4219,1.4552,1.0952,1.6964,1.0097,6.2177,7.987,5.5013,6.2128,4.501,1.943,5.5319,7.2978,3.3744,6.6118,9.5697,6.6323,1.7335,3.0762,1.6722)
new object=loadshape.3021_loadcurve interval=1 npts=24 useactual=yes mult=(9.359,5.182,5.35,5.509,3.709,3.479,3.584,7.0,5.263,7.252,5.616,12.708,8.891,5.979,6.205,11.714,7.356,7.544,14.262,14.683,12.067,11.37,7.549,6.925) qmult=(2.3456,1.2987,1.3408,1.1187,1.7964,1.5851,1.5268,2.7666,1.0687,2.8662,2.0383,2.5805,3.227,1.9652,2.8271,5.6733,2.6699,2.9816,3.5744,5.3292,5.1405,3.3163,2.9836,2.2761)
new object=loadshape.3023_loadcurve interval=1 npts=24 useactual=yes mult=(5.404,4.84,4.811,5.74,5.023,5.416,6.093,7.438,10.815,6.966,8.994,13.297,11.225,13.087,9.714,11.371,9.249,11.278,12.818,15.239,12.089,14.89,14.205,6.714) qmult=(2.4621,2.3441,2.3301,2.4452,1.9852,2.4676,2.7761,2.9397,4.6072,0.9926,3.2644,1.8947,2.2793,3.817,4.4258,4.1271,3.04,3.2894,1.8265,4.4447,5.1499,2.1217,6.472,3.2517)
new object=loadshape.3024_loadcurve interval=1 npts=24 useactual=yes mult=(5.2097,4.9583,4.7033,5.1239,4.6916,5.147,5.419,6.8546,7.3001,7.3281,7.3075,7.1265,8.6071,10.2336,7.9699,5.7444,10.3797,12.9372,19.0315,14.6447,12.3972,10.8583,8.5515,6.8569) qmult=(1.3057,1.4462,1.1788,2.3345,2.2722,0.7334,2.469,3.123,1.0402,2.6597,3.3294,3.4515,2.5104,1.4582,3.1499,1.8881,4.7291,3.2424,4.7697,6.6723,4.8997,2.2049,1.2185,1.9999)
new object=loadshape.3025_loadcurve interval=1 npts=24 useactual=yes mult=(8.539,6.51,4.492,4.62,4.325,4.397,3.982,4.831,5.704,9.406,7.184,7.214,11.387,13.534,13.568,8.059,9.948,6.783,9.058,10.621,13.386,14.788,8.579,5.63) qmult=(2.4905,1.8987,1.1258,0.6583,1.5698,2.0033,1.3088,2.2011,2.7626,3.0916,2.8393,3.0732,3.3212,2.7482,1.9333,1.6364,2.9015,2.6808,1.2907,3.491,5.7024,2.1072,1.742,0.8022)
new object=loadshape.3026_loadcurve interval=1 npts=24 useactual=yes mult=(5.364,4.066,3.763,4.429,3.558,3.747,6.43,7.294,7.774,7.533,9.169,7.652,9.036,9.825,5.931,10.816,7.227,7.833,8.63,10.824,9.918,7.121,5.509,6.681) qmult=(1.7631,1.9693,0.9431,0.6311,1.2914,0.5339,3.1142,2.3974,1.1077,2.7341,1.3065,3.4864,2.6355,1.9951,2.1527,3.555,1.8113,2.843,3.9319,3.157,3.2599,2.5846,1.1187,3.2358)
new object=loadshape.3027_loadcurve interval=1 npts=24 useactual=yes mult=(6.082,5.214,5.6,5.465,6.15,6.387,6.192,6.544,7.228,9.474,18.272,13.191,10.066,10.396,8.624,7.6,6.614,10.767,10.479,9.438,11.759,7.118,6.855,9.63) qmult=(1.7739,1.5208,0.798,1.7963,2.4306,1.6007,2.2474,2.5864,2.1082,2.3744,7.2216,3.306,4.5862,4.4287,1.7512,2.7584,2.4006,1.5342,3.0564,3.7301,3.865,2.0761,0.9768,3.806)
new object=loadshape.3028_loadcurve interval=1 npts=24 useactual=yes mult=(6.972,5.969,5.926,5.431,4.636,6.011,5.132,5.854,8.976,6.813,9.016,5.61,14.944,7.92,9.758,7.938,7.971,6.509,7.851,7.781,16.888,10.602,9.659,6.779) qmult=(2.5305,2.5428,2.5245,2.6304,1.6826,2.3757,0.7313,1.7074,1.8227,1.3834,2.9634,1.406,6.3661,3.3739,4.4459,3.3816,2.8931,2.7728,3.8024,3.3147,8.1792,4.1902,4.6781,3.2832)
new object=loadshape.3029_loadcurve interval=1 npts=24 useactual=yes mult=(2.775,2.544,2.343,2.265,2.118,2.851,2.211,4.431,2.503,5.699,6.531,6.783,3.414,4.19,6.052,8.843,6.595,5.566,8.326,5.296,6.577,6.488,7.294,2.725) qmult=(0.5635,0.6376,1.1348,0.8221,0.6962,1.299,0.8025,0.8998,0.9085,2.0685,3.1631,1.3773,0.9958,0.597,2.9311,2.2163,2.6065,1.1302,1.1864,2.565,3.1854,2.7639,2.1274,1.1608)
...